Program_1/3bus.txt
 08/19/93 UW ARCHIVE           100.0  1962 W IEEE 14 Bus Test Case
BUS DATA FOLLOWS                            14 ITEMS
   1 Bus 1     HV  1  1  3 1.050    0.0      0.0      0.0      0.0     0.0     0.0  1.050     0.0     0.0   0.0    0.0        0
   2 Bus 2     HV  1  1  0 1.000  -4.98      0.0      0.0   -300.0  -150.0     0.0  1.000     0.0     0.0   0.0    0.0        0
   3 Bus 3     HV  1  1  2 1.040 -12.72      0.0      0.0    250.0     0.0     0.0  1.040     0.0     0.0   0.0    0.0        0

